---- qbsp / ericw-tools 2.0.0-alpha9 ----

--- Options Summary ---

Input file: /home/retro/Games/RenRacerX/data/dev/maps/destruct_test-compile.map
Output file: /home/retro/Games/RenRacerX/data/dev/maps/destruct_test.bsp

INFO: using built-in palette.
    20 entities
     5 unique textures
    41 texinfos
    62 unique planes

INFO: world extents calculated to 3464 units
    11 brushes
    66 sides

            0 texture frames added
WARNING: unable to find texture __TB_empty
Processing hull 0...
     1 SKY brushes
    10 SOLID brushes
    11 brushes total
    66 visible sides
INFO: calculating BSP for 11 brushes with 66 sides
    11 brushes
    66 visible faces
    129 nodes
     48 expensive split nodes
     81 mid-split nodes
    130 leaves
      3 SKY leafs
     41 SOLID leafs
     86 EMPTY leafs
    130 leafs total
    15 max tree height
     9 avg tree height
    539 tree portals
    61 outside leaves
    0 detail filled leafs
    11 brushes
    31 visible faces
    35 non-visible faces
    51 nodes
    22 non-visible nodes
    51 expensive split nodes
    52 leaves
    14 SOLID leafs
     1 SKY leafs
    37 EMPTY leafs
    52 leafs total
    13 max tree height
     8 avg tree height
    241 tree portals
    22 outside leaves
    0 detail filled leafs
    241 tree portals
    62 sides visible
     62 makefaces
     18 merged
    118 subdivided
    17 nodes pruned
    16 player-occupiable leaves
    16 clusters of leaves
    34 vis portals
    15 EMPTY leafs
     1 SKY leafs
    19 SOLID leafs
    35 leafs total
    13 max tree height
     9 avg tree height
    114 edges added by tjunctions
    162 faces optimized through MWT
    438 triangles computed from MWT
     29 faces created via optimization of MWT triangles
    410 edges
    191 faces
Processing hull 1...
Processing hull 2...
Writing destruct_test.bsp as Quake BSP bsp29
Wrote destruct_test.bsp

count   lump name    byte size 
      1 models               64
     65 planes             1300
    221 vertexes           2652
     34 nodes               816
     11 texinfos            440
    191 faces              3820
     79 clipnodes           632
     17 leafs               476
    329 marksurfaces        658
    411 edges              1644
    820 surfedges          3280
      5 textures          92664
        lightdata             0
        visdata               0
        entdata            1293

0.045s seconds elapsed


