---- qbsp / ericw-tools 2.0.0-alpha9 ----

--- Options Summary ---

Input file: /home/retro/Games/RenRacerX/data/dev/maps/destruct_test-compile.map
Output file: /home/retro/Games/RenRacerX/data/dev/maps/destruct_test.bsp

INFO: using built-in palette.
    20 entities
     4 unique textures
    35 texinfos
    24 unique planes

INFO: world extents calculated to 3464 units
     6 brushes
    36 sides

            0 texture frames added
Processing hull 0...
    1 SKY brushes
    5 SOLID brushes
    6 brushes total
    36 visible sides
INFO: calculating BSP for 6 brushes with 36 sides
     6 brushes
    36 visible faces
    24 nodes
    24 mid-split nodes
    25 leaves
     5 SOLID leafs
     1 SKY leafs
    19 EMPTY leafs
    25 leafs total
    8 max tree height
    6 avg tree height
    114 tree portals
    18 outside leaves
    0 detail filled leafs
     6 brushes
     6 visible faces
    30 non-visible faces
    24 nodes
    18 non-visible nodes
    24 expensive split nodes
    25 leaves
     5 SOLID leafs
     1 SKY leafs
    19 EMPTY leafs
    25 leafs total
    8 max tree height
    6 avg tree height
    114 tree portals
    18 outside leaves
    0 detail filled leafs
    114 tree portals
    6 sides visible
      6 makefaces
    105 subdivided
    13 nodes pruned
    2 player-occupiable leaves
    2 clusters of leaves
     1 EMPTY leafs
     1 SKY leafs
    10 SOLID leafs
    12 leafs total
    8 max tree height
    5 avg tree height
     52 edges added by tjunctions
    111 faces optimized through MWT
    274 triangles computed from MWT
      7 faces created via optimization of MWT triangles
    255 edges
    118 faces
Processing hull 1...
Processing hull 2...
Writing destruct_test.bsp as Quake BSP bsp29
Wrote destruct_test.bsp

count   lump name    byte size 
      1 models               64
     18 planes              360
    139 vertexes           1668
     11 nodes               264
      6 texinfos            240
    118 faces              2360
     12 clipnodes            96
      3 leafs                84
    118 marksurfaces        236
    256 edges              1024
    510 surfedges          2040
      4 textures          92660
        lightdata             0
        visdata               0
        entdata            1293

0.020s seconds elapsed


